test2.m
% data for test case
% (bus#)( volt )( ang )(  p )(  q )(bus type)

bus=[
   1   1.00  0.0   -0.30  -0.18   1;
   2   1.00  0.0   -0.55  -0.13   1;
   3   1.10  0.0    0.50   0.00   2;
   4   1.05  0.0    0.00   0.00   3];

% b#1 b#2  ( R )( X )( G )( B/2 ) ( tap )

line = [
   1   2 0.10 0.40  0.0 0.01528    0;
   1   4 0.12 0.50  0.0 0.01920    0;
   2   4 0.08 0.40  0.0 0.01413    0;
   3   1 0.00 0.30  0.0 0.0     -1.1];